#------------------------------------------------------

#DFT-relaxed structures Cs2 PbI4

#Used QE with Pseudo Dojo NC SR v5.0 with a PBE exchange corrrelation function. 

#William Davie, MPhil Thesis,
#Deparment of Physics, Deparment of Material Science, University of Cambridge 06/25.

#------------------------------------------------------

#a total of 45 structures are obtained labeled each is labeled as data_{beta}_{delta}

# where beta,delta = 0, 2.5, 5, 7.5, 10, 12.5, 15, 17.5, 20 and beta >= delta

#------------------------------------------------------

data_0_0

_symmetry_space_group_name_H-M    'P 1'
_cell_length_a                    8.904864711 
_cell_length_b                    8.904864711 
_cell_length_c                    16.0 
_cell_angle_alpha                 90
_cell_angle_beta                  90
_cell_angle_gamma                 90
_symmetry_Int_Tables_number       1

loop_
  _atom_site_type_symbol
  _atom_site_fract_x
  _atom_site_fract_y
  _atom_site_fract_z
Pb               0.0000000000        0.0000000000        0.0000000000   
Pb               0.5000000000        0.5000000000        0.0000000000    
I                0.2500000000        0.2500000000        0.0000000000    
I                0.7500000000        0.7500000000        0.0000000000   
I                0.2500000000        0.7500000000        0.0000000000    
I                0.7500000000        0.2500000000        0.0000000000    
I                0.0000000000        0.0000000000        0.1983868287    
I                0.0000000000        0.0000000000       -0.1983868287    
I                0.5000000000        0.5000000000        0.1983868287    
I                0.5000000000        0.5000000000       -0.1983868287  
Cs               0.5000000000        0.0000000000        0.1650920586
Cs               0.0000000000        0.5000000000        0.1650830991
Cs               0.5000000000        0.0000000000       -0.1650920586
Cs               0.0000000000        0.5000000000       -0.1650830991


#------------------------------------------------------

data_2.5_0

_symmetry_space_group_name_H-M    'P 1'
_cell_length_a                    8.945557636
_cell_length_b                    8.945557636
_cell_length_c                    16.0 
_cell_angle_alpha                 90
_cell_angle_beta                  90
_cell_angle_gamma                 90
_symmetry_Int_Tables_number       1

loop_
  _atom_site_type_symbol
  _atom_site_fract_x
  _atom_site_fract_y
  _atom_site_fract_z
Pb               0.0000000000        0.0000000000        0.0000000000    
Pb               0.5000000000        0.5000000000        0.0000000000    
I                0.2390847643        0.2609152357        0.0000000000    
I                0.7609152357        0.7390847643        0.0000000000    
I                0.2609152357        0.7609152357        0.0000000000    
I                0.7390847643        0.2390847643        0.0000000000    
I                0.0000000000        0.0000000000        0.1979253574    
I                0.0000000000        0.0000000000       -0.1979253574    
I                0.5000000000        0.5000000000        0.1979253574    
I                0.5000000000        0.5000000000       -0.1979253574    
Cs               0.5000000000        0.0000000000        0.1644417519
Cs               0.0000000000        0.5000000000        0.1644327924
Cs               0.5000000000        0.0000000000       -0.1644417519
Cs               0.0000000000        0.5000000000       -0.1644327924

#------------------------------------------------------

data_5_0

_symmetry_space_group_name_H-M    'P 1'
_cell_length_a                    8.880189659
_cell_length_b                    8.880189659 
_cell_length_c                    16.0 
_cell_angle_alpha                 90
_cell_angle_beta                  90
_cell_angle_gamma                 90
_symmetry_Int_Tables_number       1

loop_
  _atom_site_type_symbol
  _atom_site_fract_x
  _atom_site_fract_y
  _atom_site_fract_z
Pb               0.0000000000        0.0000000000        0.0000000000    
Pb               0.5000000000        0.5000000000        0.0000000000    
I                0.2281278341        0.2718721659        0.0000000000    
I                0.7718721659        0.7281278341        0.0000000000   
I                0.2718721659        0.7718721659        0.0000000000   
I                0.7281278341        0.2281278341        0.0000000000    
I                0.0000000000        0.0000000000        0.1975232049  
I                0.0000000000        0.0000000000       -0.1975232049   
I                0.5000000000        0.5000000000        0.1975232049    
I                0.5000000000        0.5000000000       -0.1975232049    
Cs               0.5000000000        0.0000000000        0.1688133120
Cs               0.0000000000        0.5000000000        0.1688043525
Cs               0.5000000000        0.0000000000       -0.1688133120
Cs               0.0000000000        0.5000000000       -0.1688043525

#------------------------------------------------------

data_7.5_0

_symmetry_space_group_name_H-M    'P 1'
_cell_length_a                    8.896091478
_cell_length_b                    8.896091478 
_cell_length_c                    16.0 
_cell_angle_alpha                 90
_cell_angle_beta                  90
_cell_angle_gamma                 90
_symmetry_Int_Tables_number       1

loop_
  _atom_site_type_symbol
  _atom_site_fract_x
  _atom_site_fract_y
  _atom_site_fract_z
Pb               0.0000000000        0.0000000000        0.0000000000    
Pb               0.5000000000        0.5000000000        0.0000000000    
I                0.2170868756        0.2829131244        0.0000000000    
I                0.7829131244        0.7170868756        0.0000000000    
I                0.2829131244        0.7829131244        0.0000000000    
I                0.7170868756        0.2170868756        0.0000000000    
I                0.0000000000        0.0000000000        0.1981325592    
I                0.0000000000        0.0000000000       -0.1981325592    
I                0.5000000000        0.5000000000        0.1981325592    
I                0.5000000000        0.5000000000       -0.1981325592    
Cs               0.5000000000        0.0000000000        0.1719657342
Cs               0.0000000000        0.5000000000        0.1719567747
Cs               0.5000000000        0.0000000000       -0.1719657342
Cs               0.0000000000        0.5000000000       -0.1719567747

#------------------------------------------------------

data_10_0 

_symmetry_space_group_name_H-M    'P 1'
_cell_length_a                    8.853281999
_cell_length_b                    8.853281999 
_cell_length_c                    16.0 
_cell_angle_alpha                 90
_cell_angle_beta                  90
_cell_angle_gamma                 90
_symmetry_Int_Tables_number       1

loop_
  _atom_site_type_symbol
  _atom_site_fract_x
  _atom_site_fract_y
  _atom_site_fract_z
Pb               0.0000000000        0.0000000000        0.0000000000    
Pb               0.5000000000        0.5000000000        0.0000000000    
I                0.2059182548        0.2940817452        0.0000000000    
I                0.7940817452        0.7059182548        0.0000000000    
I                0.2940817452        0.7940817452        0.0000000000    
I                0.7059182548        0.2059182548        0.0000000000    
I                0.0000000000        0.0000000000        0.1982941057    
I                0.0000000000        0.0000000000       -0.1982941057    
I                0.5000000000        0.5000000000        0.1982941057    
I                0.5000000000        0.5000000000       -0.1982941057    
Cs               0.5000000000        0.0000000000        0.1772183049
Cs               0.0000000000        0.5000000000        0.1772093454
Cs               0.5000000000        0.0000000000       -0.1772183049
Cs               0.0000000000        0.5000000000       -0.1772093454

#------------------------------------------------------

data_12.5_0

_symmetry_space_group_name_H-M    'P 1'
_cell_length_a                    8.795164436 
_cell_length_b                    8.795164436 
_cell_length_c                    16.0 
_cell_angle_alpha                 90
_cell_angle_beta                  90
_cell_angle_gamma                 90
_symmetry_Int_Tables_number       1

loop_
  _atom_site_type_symbol
  _atom_site_fract_x
  _atom_site_fract_y
  _atom_site_fract_z
Pb               0.0000000000        0.0000000000        0.0000000000    
Pb               0.5000000000        0.5000000000        0.0000000000    
I                0.1945763343        0.3054236657        0.0000000000    
I                0.8054236657        0.6945763343        0.0000000000    
I                0.3054236657        0.8054236657        0.0000000000    
I                0.6945763343        0.1945763343        0.0000000000    
I                0.0000000000        0.0000000000        0.1984945632    
I                0.0000000000        0.0000000000       -0.1984945632    
I                0.5000000000        0.5000000000        0.1984945632    
I                0.5000000000        0.5000000000       -0.1984945632    
Cs               0.5000000000        0.0000000000        0.1827675930
Cs               0.0000000000        0.5000000000        0.1827586335
Cs               0.5000000000        0.0000000000       -0.1827675930
Cs               0.0000000000        0.5000000000       -0.1827586335

#------------------------------------------------------

data_15_0

_symmetry_space_group_name_H-M    'P 1'
_cell_length_a                    8.721453389 
_cell_length_b                    8.721453389 
_cell_length_c                    16.0 
_cell_angle_alpha                 90
_cell_angle_beta                  90
_cell_angle_gamma                 90
_symmetry_Int_Tables_number       1

loop_
  _atom_site_type_symbol
  _atom_site_fract_x
  _atom_site_fract_y
  _atom_site_fract_z
Pb               0.0000000000        0.0000000000        0.0000000000    
Pb               0.5000000000        0.5000000000        0.0000000000    
I                0.1830127019        0.3169872981        0.0000000000    
I                0.8169872981        0.6830127019        0.0000000000    
I                0.3169872981        0.8169872981        0.0000000000    
I                0.6830127019        0.1830127019        0.0000000000    
I                0.0000000000        0.0000000000        0.1988085253    
I                0.0000000000        0.0000000000       -0.1988085253    
I                0.5000000000        0.5000000000        0.1988085253    
I                0.5000000000        0.5000000000       -0.1988085253    
Cs               0.5000000000        0.0000000000        0.1884058553
Cs               0.0000000000        0.5000000000        0.1883968958
Cs               0.5000000000        0.0000000000       -0.1884058553
Cs               0.0000000000        0.5000000000       -0.1883968958

#------------------------------------------------------

data_17.5_0

_symmetry_space_group_name_H-M    'P 1'
_cell_length_a                    8.640924755
_cell_length_b                    8.640924755
_cell_length_c                    16.0 
_cell_angle_alpha                 90
_cell_angle_beta                  90
_cell_angle_gamma                 90
_symmetry_Int_Tables_number       1

loop_
  _atom_site_type_symbol
  _atom_site_fract_x
  _atom_site_fract_y
  _atom_site_fract_z
Pb               0.0000000000        0.0000000000        0.0000000000    
Pb               0.5000000000        0.5000000000        0.0000000000    
I                0.1711753028        0.3288246972        0.0000000000    
I                0.8288246972        0.6711753028        0.0000000000    
I                0.3288246972        0.8288246972        0.0000000000    
I                0.6711753028        0.1711753028        0.0000000000    
I                0.0000000000        0.0000000000        0.2000671326    
I                0.0000000000        0.0000000000       -0.2000671326    
I                0.5000000000        0.5000000000        0.2000671326    
I                0.5000000000        0.5000000000       -0.2000671326    
Cs               0.5000000000        0.0000000000        0.1943864441
Cs               0.0000000000        0.5000000000        0.1943774846
Cs               0.5000000000        0.0000000000       -0.1943864441
Cs               0.0000000000        0.5000000000       -0.1943774846

#------------------------------------------------------

data_20_0

_symmetry_space_group_name_H-M    'P 1'
_cell_length_a                    8.570199500
_cell_length_b                    8.570199500
_cell_length_c                    16.0 
_cell_angle_alpha                 90
_cell_angle_beta                  90
_cell_angle_gamma                 90
_symmetry_Int_Tables_number       1

loop_
  _atom_site_type_symbol
  _atom_site_fract_x
  _atom_site_fract_y
  _atom_site_fract_z
Pb               0.0000000000        0.0000000000        0.0000000000    
Pb               0.5000000000        0.5000000000        0.0000000000    
I                0.1590074414        0.3409925586        0.0000000000    
I                0.8409925586        0.6590074414        0.0000000000    
I                0.3409925586        0.8409925586        0.0000000000    
I                0.6590074414        0.1590074414        0.0000000000    
I                0.0000000000        0.0000000000        0.2011781953    
I                0.0000000000        0.0000000000       -0.2011781953    
I                0.5000000000        0.5000000000        0.2011781953    
I                0.5000000000        0.5000000000       -0.2011781953    
Cs               0.5000000000        0.0000000000        0.1996263432
Cs               0.0000000000        0.5000000000        0.1996173837
Cs               0.5000000000        0.0000000000       -0.1996263432
Cs               0.0000000000        0.5000000000       -0.1996173837

#------------------------------------------------------

