#------------------------------------------------------

#DFT-relaxed structures Cs2 PbI4

#Used QE with Pseudo Dojo NC SR v5.0 with a PBE exchange corrrelation function. 

#Force convergence threshold of 1e-4.

#William Davie, MPhil Thesis,
#Deparment of Physics, Deparment of Material Science, University of Cambridge 06/25.

#------------------------------------------------------

data_0_0


# INPUT
# beta = 0 
# delta = 0

# POST RELAXATION
# beta = 0
# delta = 0

_symmetry_space_group_name_H-M    'P 1'
_cell_length_a                    8.904864711 
_cell_length_b                    8.904864711 
_cell_length_c                    16.0 
_cell_angle_alpha                 90
_cell_angle_beta                  90
_cell_angle_gamma                 90
_symmetry_Int_Tables_number       1

loop_
  _atom_site_type_symbol
  _atom_site_fract_x
  _atom_site_fract_y
  _atom_site_fract_z
Pb               0.0000000000        0.0000000000        0.0000000000   
Pb               0.5000000000        0.5000000000        0.0000000000    
I                0.2500000000        0.2500000000        0.0000000000    
I                0.7500000000        0.7500000000        0.0000000000   
I                0.2500000000        0.7500000000        0.0000000000    
I                0.7500000000        0.2500000000        0.0000000000    
I                0.0000000000        0.0000000000        0.1983868287    
I                0.0000000000        0.0000000000       -0.1983868287    
I                0.5000000000        0.5000000000        0.1983868287    
I                0.5000000000        0.5000000000       -0.1983868287  
Cs               0.5000000000        0.0000000000        0.1650920586
Cs               0.0000000000        0.5000000000        0.1650830991
Cs               0.5000000000        0.0000000000       -0.1650920586
Cs               0.0000000000        0.5000000000       -0.1650830991


#------------------------------------------------------

data_5_0

# INPUT
# beta = 5
# delta = 0

# POST RELAXATION
# beta = 0
# delta = 0

_symmetry_space_group_name_H-M    'P 1'
_cell_length_a                    8.904864711 
_cell_length_b                    8.904864711 
_cell_length_c                    16.0 
_cell_angle_alpha                 90
_cell_angle_beta                  90
_cell_angle_gamma                 90
_symmetry_Int_Tables_number       1

loop_
  _atom_site_type_symbol
  _atom_site_fract_x
  _atom_site_fract_y
  _atom_site_fract_z
Pb               0.0000000000        0.0000000000        0.0000000000    
Pb               0.5000000000        0.5000000000        0.0000000000    
I                0.2281278341        0.2718721659        0.0000000000    
I                0.7718721659        0.7281278341        0.0000000000   
I                0.2718721659        0.7718721659        0.0000000000   
I                0.7281278341        0.2281278341        0.0000000000    
I                0.0000000000        0.0000000000        0.1975232049  
I                0.0000000000        0.0000000000       -0.1975232049   
I                0.5000000000        0.5000000000        0.1975232049    
I                0.5000000000        0.5000000000       -0.1975232049    
Cs               0.5000000000        0.0000000000        0.1688133120
Cs               0.0000000000        0.5000000000        0.1688043525
Cs               0.5000000000        0.0000000000       -0.1688133120
Cs               0.0000000000        0.5000000000       -0.1688043525



