#------------------------------------------------------

#DFT-relaxed structures Cs2 PbI4

#Used QE with Pseudo Dojo NC SR v5.0 with a PBE exchange corrrelation function. 

#Force convergence threshold of 1e-4.

#William Davie, MPhil Thesis,
#Deparment of Physics, Deparment of Material Science, University of Cambridge 06/25.

#------------------------------------------------------

data_0_0


# INPUT
# beta = 0 
# delta = 0

# POST RELAXATION
# beta = 0
# delta = 0

_symmetry_space_group_name_H-M    'P 1'
_cell_length_a                    8.904864711 
_cell_length_b                    8.904864711 
_cell_length_c                    16.0 
_cell_angle_alpha                 90
_cell_angle_beta                  90
_cell_angle_gamma                 90
_symmetry_Int_Tables_number       1

loop_
  _atom_site_type_symbol
  _atom_site_fract_x
  _atom_site_fract_y
  _atom_site_fract_z
Pb               0.0000000000        0.0000000000        0.0000000000   
Pb               0.5000000000        0.5000000000        0.0000000000    
I                0.2500000000        0.2500000000        0.0000000000    
I                0.7500000000        0.7500000000        0.0000000000   
I                0.2500000000        0.7500000000        0.0000000000    
I                0.7500000000        0.2500000000        0.0000000000    
I                0.0000000000        0.0000000000        0.1983868287    
I                0.0000000000        0.0000000000       -0.1983868287    
I                0.5000000000        0.5000000000        0.1983868287    
I                0.5000000000        0.5000000000       -0.1983868287  
Cs               0.5000000000        0.0000000000        0.1650920586
Cs               0.0000000000        0.5000000000        0.1650830991
Cs               0.5000000000        0.0000000000       -0.1650920586
Cs               0.0000000000        0.5000000000       -0.1650830991


#------------------------------------------------------

data_5_0

# INPUT
# beta = 5
# delta = 0

# POST RELAXATION
# beta = 5
# delta = 0

_symmetry_space_group_name_H-M    'P 1'
_cell_length_a                    8.880189659
_cell_length_b                    8.880189659 
_cell_length_c                    16.0 
_cell_angle_alpha                 90
_cell_angle_beta                  90
_cell_angle_gamma                 90
_symmetry_Int_Tables_number       1

loop_
  _atom_site_type_symbol
  _atom_site_fract_x
  _atom_site_fract_y
  _atom_site_fract_z
Pb               0.0000000000        0.0000000000        0.0000000000    
Pb               0.5000000000        0.5000000000        0.0000000000    
I                0.2281278341        0.2718721659        0.0000000000    
I                0.7718721659        0.7281278341        0.0000000000   
I                0.2718721659        0.7718721659        0.0000000000   
I                0.7281278341        0.2281278341        0.0000000000    
I                0.0000000000        0.0000000000        0.1975232049  
I                0.0000000000        0.0000000000       -0.1975232049   
I                0.5000000000        0.5000000000        0.1975232049    
I                0.5000000000        0.5000000000       -0.1975232049    
Cs               0.5000000000        0.0000000000        0.1688133120
Cs               0.0000000000        0.5000000000        0.1688043525
Cs               0.5000000000        0.0000000000       -0.1688133120
Cs               0.0000000000        0.5000000000       -0.1688043525


#------------------------------------------------------

data_5_5

# INPUT
# beta = 5
# delta = 5

# POST RELAXATION
# beta = 
# delta = 

_symmetry_space_group_name_H-M    'P 1'
_cell_length_a                    8.678129223
_cell_length_b                    9.216266328
_cell_length_c                    16.0 
_cell_angle_alpha                 90
_cell_angle_beta                  90
_cell_angle_gamma                 90
_symmetry_Int_Tables_number       1

loop_
  _atom_site_type_symbol
  _atom_site_fract_x
  _atom_site_fract_y
  _atom_site_fract_z
Pb               0.0000000000        0.0000000000        0.0000000000   
Pb               0.5000000000        0.5000000000        0.0000000000   
I                0.2345635536        0.2654364464       -0.0121962254   
I                0.7654364464        0.7345635536        0.0121962254   
I                0.2654364464        0.7654364464        0.0121962254   
I                0.7345635536        0.2345635536       -0.0121962254   
I               -0.0019062849        0.0308731171        0.1967715695   
I                0.0019062849       -0.0308731171       -0.1967715695   
I                0.4980937151        0.4691268829        0.1967715695   
I                0.5019062849        0.5308731171       -0.1967715695   
Cs               0.4886366765        0.0427029450        0.1649359800
Cs              -0.0113633235        0.4572970550        0.1649270205
Cs               0.5113633235       -0.0427029450       -0.1649359800
Cs               0.0113633235        0.5427029450       -0.1649270205



