#------------------------------------------------------

#DFT-relaxed structures Cs2 PbI4

#Used QE with Pseudo Dojo NC SR v5.0 with a PBE exchange corrrelation function.

#Force convergence tolerance 1e-3.

#William Davie, MPhil Thesis,
#Deparment of Physics, Deparment of Material Science, University of Cambridge 06/25.

#------------------------------------------------------

#a total of 45 structures are obtained labeled each is labeled as data_{beta}_{delta}

# where beta,delta = 0, 2.5, 5, 7.5, 10, 12.5, 15, 17.5, 20 and beta >= delta

#------------------------------------------------------

data_0_0

_symmetry_space_group_name_H-M    'P 1'
_cell_length_a                    8.904864711 
_cell_length_b                    8.904864711 
_cell_length_c                    16.0 
_cell_angle_alpha                 90
_cell_angle_beta                  90
_cell_angle_gamma                 90
_symmetry_Int_Tables_number       1

loop_
  _atom_site_type_symbol
  _atom_site_fract_x
  _atom_site_fract_y
  _atom_site_fract_z
Pb               0.0000000000        0.0000000000        0.0000000000   
Pb               0.5000000000        0.5000000000        0.0000000000    
I                0.2500000000        0.2500000000        0.0000000000    
I                0.7500000000        0.7500000000        0.0000000000   
I                0.2500000000        0.7500000000        0.0000000000    
I                0.7500000000        0.2500000000        0.0000000000    
I                0.0000000000        0.0000000000        0.1983868287    
I                0.0000000000        0.0000000000       -0.1983868287    
I                0.5000000000        0.5000000000        0.1983868287    
I                0.5000000000        0.5000000000       -0.1983868287  
Cs               0.5000000000        0.0000000000        0.1650920586
Cs               0.0000000000        0.5000000000        0.1650830991
Cs               0.5000000000        0.0000000000       -0.1650920586
Cs               0.0000000000        0.5000000000       -0.1650830991


#------------------------------------------------------

data_2.5_0

_symmetry_space_group_name_H-M    'P 1'
_cell_length_a                    8.945557636
_cell_length_b                    8.945557636
_cell_length_c                    16.0 
_cell_angle_alpha                 90
_cell_angle_beta                  90
_cell_angle_gamma                 90
_symmetry_Int_Tables_number       1

loop_
  _atom_site_type_symbol
  _atom_site_fract_x
  _atom_site_fract_y
  _atom_site_fract_z
Pb               0.0000000000        0.0000000000        0.0000000000    
Pb               0.5000000000        0.5000000000        0.0000000000    
I                0.2390847643        0.2609152357        0.0000000000    
I                0.7609152357        0.7390847643        0.0000000000    
I                0.2609152357        0.7609152357        0.0000000000    
I                0.7390847643        0.2390847643        0.0000000000    
I                0.0000000000        0.0000000000        0.1979253574    
I                0.0000000000        0.0000000000       -0.1979253574    
I                0.5000000000        0.5000000000        0.1979253574    
I                0.5000000000        0.5000000000       -0.1979253574    
Cs               0.5000000000        0.0000000000        0.1644417519
Cs               0.0000000000        0.5000000000        0.1644327924
Cs               0.5000000000        0.0000000000       -0.1644417519
Cs               0.0000000000        0.5000000000       -0.1644327924

#------------------------------------------------------

data_5_0

_symmetry_space_group_name_H-M    'P 1'
_cell_length_a                    8.880189659
_cell_length_b                    8.880189659 
_cell_length_c                    16.0 
_cell_angle_alpha                 90
_cell_angle_beta                  90
_cell_angle_gamma                 90
_symmetry_Int_Tables_number       1

loop_
  _atom_site_type_symbol
  _atom_site_fract_x
  _atom_site_fract_y
  _atom_site_fract_z
Pb               0.0000000000        0.0000000000        0.0000000000    
Pb               0.5000000000        0.5000000000        0.0000000000    
I                0.2281278341        0.2718721659        0.0000000000    
I                0.7718721659        0.7281278341        0.0000000000   
I                0.2718721659        0.7718721659        0.0000000000   
I                0.7281278341        0.2281278341        0.0000000000    
I                0.0000000000        0.0000000000        0.1975232049  
I                0.0000000000        0.0000000000       -0.1975232049   
I                0.5000000000        0.5000000000        0.1975232049    
I                0.5000000000        0.5000000000       -0.1975232049    
Cs               0.5000000000        0.0000000000        0.1688133120
Cs               0.0000000000        0.5000000000        0.1688043525
Cs               0.5000000000        0.0000000000       -0.1688133120
Cs               0.0000000000        0.5000000000       -0.1688043525

#------------------------------------------------------

data_7.5_0

_symmetry_space_group_name_H-M    'P 1'
_cell_length_a                    8.896091478
_cell_length_b                    8.896091478 
_cell_length_c                    16.0 
_cell_angle_alpha                 90
_cell_angle_beta                  90
_cell_angle_gamma                 90
_symmetry_Int_Tables_number       1

loop_
  _atom_site_type_symbol
  _atom_site_fract_x
  _atom_site_fract_y
  _atom_site_fract_z
Pb               0.0000000000        0.0000000000        0.0000000000    
Pb               0.5000000000        0.5000000000        0.0000000000    
I                0.2170868756        0.2829131244        0.0000000000    
I                0.7829131244        0.7170868756        0.0000000000    
I                0.2829131244        0.7829131244        0.0000000000    
I                0.7170868756        0.2170868756        0.0000000000    
I                0.0000000000        0.0000000000        0.1981325592    
I                0.0000000000        0.0000000000       -0.1981325592    
I                0.5000000000        0.5000000000        0.1981325592    
I                0.5000000000        0.5000000000       -0.1981325592    
Cs               0.5000000000        0.0000000000        0.1719657342
Cs               0.0000000000        0.5000000000        0.1719567747
Cs               0.5000000000        0.0000000000       -0.1719657342
Cs               0.0000000000        0.5000000000       -0.1719567747

#------------------------------------------------------

data_10_0 

_symmetry_space_group_name_H-M    'P 1'
_cell_length_a                    8.853281999
_cell_length_b                    8.853281999 
_cell_length_c                    16.0 
_cell_angle_alpha                 90
_cell_angle_beta                  90
_cell_angle_gamma                 90
_symmetry_Int_Tables_number       1

loop_
  _atom_site_type_symbol
  _atom_site_fract_x
  _atom_site_fract_y
  _atom_site_fract_z
Pb               0.0000000000        0.0000000000        0.0000000000    
Pb               0.5000000000        0.5000000000        0.0000000000    
I                0.2059182548        0.2940817452        0.0000000000    
I                0.7940817452        0.7059182548        0.0000000000    
I                0.2940817452        0.7940817452        0.0000000000    
I                0.7059182548        0.2059182548        0.0000000000    
I                0.0000000000        0.0000000000        0.1982941057    
I                0.0000000000        0.0000000000       -0.1982941057    
I                0.5000000000        0.5000000000        0.1982941057    
I                0.5000000000        0.5000000000       -0.1982941057    
Cs               0.5000000000        0.0000000000        0.1772183049
Cs               0.0000000000        0.5000000000        0.1772093454
Cs               0.5000000000        0.0000000000       -0.1772183049
Cs               0.0000000000        0.5000000000       -0.1772093454

#------------------------------------------------------

data_12.5_0

_symmetry_space_group_name_H-M    'P 1'
_cell_length_a                    8.795164436 
_cell_length_b                    8.795164436 
_cell_length_c                    16.0 
_cell_angle_alpha                 90
_cell_angle_beta                  90
_cell_angle_gamma                 90
_symmetry_Int_Tables_number       1

loop_
  _atom_site_type_symbol
  _atom_site_fract_x
  _atom_site_fract_y
  _atom_site_fract_z
Pb               0.0000000000        0.0000000000        0.0000000000    
Pb               0.5000000000        0.5000000000        0.0000000000    
I                0.1945763343        0.3054236657        0.0000000000    
I                0.8054236657        0.6945763343        0.0000000000    
I                0.3054236657        0.8054236657        0.0000000000    
I                0.6945763343        0.1945763343        0.0000000000    
I                0.0000000000        0.0000000000        0.1984945632    
I                0.0000000000        0.0000000000       -0.1984945632    
I                0.5000000000        0.5000000000        0.1984945632    
I                0.5000000000        0.5000000000       -0.1984945632    
Cs               0.5000000000        0.0000000000        0.1827675930
Cs               0.0000000000        0.5000000000        0.1827586335
Cs               0.5000000000        0.0000000000       -0.1827675930
Cs               0.0000000000        0.5000000000       -0.1827586335

#------------------------------------------------------

data_15_0

_symmetry_space_group_name_H-M    'P 1'
_cell_length_a                    8.721453389 
_cell_length_b                    8.721453389 
_cell_length_c                    16.0 
_cell_angle_alpha                 90
_cell_angle_beta                  90
_cell_angle_gamma                 90
_symmetry_Int_Tables_number       1

loop_
  _atom_site_type_symbol
  _atom_site_fract_x
  _atom_site_fract_y
  _atom_site_fract_z
Pb               0.0000000000        0.0000000000        0.0000000000    
Pb               0.5000000000        0.5000000000        0.0000000000    
I                0.1830127019        0.3169872981        0.0000000000    
I                0.8169872981        0.6830127019        0.0000000000    
I                0.3169872981        0.8169872981        0.0000000000    
I                0.6830127019        0.1830127019        0.0000000000    
I                0.0000000000        0.0000000000        0.1988085253    
I                0.0000000000        0.0000000000       -0.1988085253    
I                0.5000000000        0.5000000000        0.1988085253    
I                0.5000000000        0.5000000000       -0.1988085253    
Cs               0.5000000000        0.0000000000        0.1884058553
Cs               0.0000000000        0.5000000000        0.1883968958
Cs               0.5000000000        0.0000000000       -0.1884058553
Cs               0.0000000000        0.5000000000       -0.1883968958

#------------------------------------------------------

data_17.5_0

_symmetry_space_group_name_H-M    'P 1'
_cell_length_a                    8.640924755
_cell_length_b                    8.640924755
_cell_length_c                    16.0 
_cell_angle_alpha                 90
_cell_angle_beta                  90
_cell_angle_gamma                 90
_symmetry_Int_Tables_number       1

loop_
  _atom_site_type_symbol
  _atom_site_fract_x
  _atom_site_fract_y
  _atom_site_fract_z
Pb               0.0000000000        0.0000000000        0.0000000000    
Pb               0.5000000000        0.5000000000        0.0000000000    
I                0.1711753028        0.3288246972        0.0000000000    
I                0.8288246972        0.6711753028        0.0000000000    
I                0.3288246972        0.8288246972        0.0000000000    
I                0.6711753028        0.1711753028        0.0000000000    
I                0.0000000000        0.0000000000        0.2000671326    
I                0.0000000000        0.0000000000       -0.2000671326    
I                0.5000000000        0.5000000000        0.2000671326    
I                0.5000000000        0.5000000000       -0.2000671326    
Cs               0.5000000000        0.0000000000        0.1943864441
Cs               0.0000000000        0.5000000000        0.1943774846
Cs               0.5000000000        0.0000000000       -0.1943864441
Cs               0.0000000000        0.5000000000       -0.1943774846

#------------------------------------------------------

data_20_0

_symmetry_space_group_name_H-M    'P 1'
_cell_length_a                    8.570199500
_cell_length_b                    8.570199500
_cell_length_c                    16.0 
_cell_angle_alpha                 90
_cell_angle_beta                  90
_cell_angle_gamma                 90
_symmetry_Int_Tables_number       1

loop_
  _atom_site_type_symbol
  _atom_site_fract_x
  _atom_site_fract_y
  _atom_site_fract_z
Pb               0.0000000000        0.0000000000        0.0000000000    
Pb               0.5000000000        0.5000000000        0.0000000000    
I                0.1590074414        0.3409925586        0.0000000000    
I                0.8409925586        0.6590074414        0.0000000000    
I                0.3409925586        0.8409925586        0.0000000000    
I                0.6590074414        0.1590074414        0.0000000000    
I                0.0000000000        0.0000000000        0.2011781953    
I                0.0000000000        0.0000000000       -0.2011781953    
I                0.5000000000        0.5000000000        0.2011781953    
I                0.5000000000        0.5000000000       -0.2011781953    
Cs               0.5000000000        0.0000000000        0.1996263432
Cs               0.0000000000        0.5000000000        0.1996173837
Cs               0.5000000000        0.0000000000       -0.1996263432
Cs               0.0000000000        0.5000000000       -0.1996173837

#------------------------------------------------------

data_2.5_2.5

_symmetry_space_group_name_H-M    'P 1'
_cell_length_a                    8.835072314 
_cell_length_b                    9.118280074 
_cell_length_c                    16.0 
_cell_angle_alpha                 90
_cell_angle_beta                  90
_cell_angle_gamma                 90
_symmetry_Int_Tables_number       1

loop_
  _atom_site_type_symbol
  _atom_site_fract_x
  _atom_site_fract_y
  _atom_site_fract_z
Pb               0.0000000000        0.0000000000        0.0000000000    
Pb               0.5000000000        0.5000000000        0.0000000000    
I                0.2421648364        0.2573560120       -0.0062233785    
I                0.7578351636        0.7426439880        0.0062233785    
I                0.2578351636        0.7573560120        0.0062233785    
I                0.7421648364        0.2426439880       -0.0062233785    
I               -0.0004761159        0.0151916387        0.1983830722    
I                0.0004761159       -0.0151916387       -0.1983830722    
I                0.4995238841        0.4848083613        0.1983830722    
I                0.5004761159        0.5151916387       -0.1983830722    
Cs               0.4873818744        0.0354115170        0.1638009198
Cs              -0.0126181256        0.4645884830        0.1637919603
Cs               0.5126181256       -0.0354115170       -0.1638009198
Cs               0.0126181256        0.5354115170       -0.1637919603

#------------------------------------------------------

data_5_2.5

_symmetry_space_group_name_H-M    'P 1'
_cell_length_a                    8.854189333
_cell_length_b                    9.126752107
_cell_length_c                    16.0 
_cell_angle_alpha                 90
_cell_angle_beta                  90
_cell_angle_gamma                 90
_symmetry_Int_Tables_number       1

loop_
  _atom_site_type_symbol
  _atom_site_fract_x
  _atom_site_fract_y
  _atom_site_fract_z
Pb               0.0000000000        0.0000000000        0.0000000000    
Pb               0.5000000000        0.5000000000        0.0000000000    
I                0.2289607587        0.2698013671       -0.0062470075    
I                0.7710392413        0.7301986329        0.0062470075    
I                0.2710392413        0.7698013671        0.0062470075    
I                0.7289607587        0.2301986329       -0.0062470075    
I               -0.0012792453        0.0152007065        0.1992551567    
I                0.0012792453       -0.0152007065       -0.1992551567    
I                0.4987207547        0.4847992935        0.1992551567    
I                0.5012792453        0.5152007065       -0.1992551567    
Cs               0.4674668531        0.0452711337        0.1663081486
Cs              -0.0325331469        0.4547288663        0.1662991891
Cs               0.5325331469       -0.0452711337       -0.1663081486
Cs               0.0325331469        0.5452711337       -0.1662991891

#------------------------------------------------------

data_7.5_2.5

_symmetry_space_group_name_H-M    'P 1'
_cell_length_a                    8.781725904
_cell_length_b                    9.159979001
_cell_length_c                    16.0 
_cell_angle_alpha                 90
_cell_angle_beta                  90
_cell_angle_gamma                 90
_symmetry_Int_Tables_number       1

loop_
  _atom_site_type_symbol
  _atom_site_fract_x
  _atom_site_fract_y
  _atom_site_fract_z
Pb               0.0000000000        0.0000000000        0.0000000000    
Pb               0.5000000000        0.5000000000        0.0000000000    
I                0.2166840125        0.2806212906       -0.0062997521    
I                0.7833159875        0.7193787094        0.0062997521    
I                0.2833159875        0.7806212906        0.0062997521    
I                0.7166840125        0.2193787094       -0.0062997521    
I               -0.0020141813        0.0151142250        0.1997943098    
I                0.0020141813       -0.0151142250       -0.1997943098    
I                0.4979858187        0.4848857750        0.1997943098    
I                0.5020141813        0.5151142250       -0.1997943098    
Cs               0.4585524486        0.0519982409        0.1702994204
Cs              -0.0414475514        0.4480017591        0.1702904609
Cs               0.5414475514       -0.0519982409       -0.1702994204
Cs               0.0414475514        0.5519982409       -0.1702904609

#------------------------------------------------------

data_10_2.5

_symmetry_space_group_name_H-M    'P 1'
_cell_length_a                    8.736324663
_cell_length_b                    9.145184305
_cell_length_c                    16.0 
_cell_angle_alpha                 90
_cell_angle_beta                  90
_cell_angle_gamma                 90
_symmetry_Int_Tables_number       1

loop_
  _atom_site_type_symbol
  _atom_site_fract_x
  _atom_site_fract_y
  _atom_site_fract_z
Pb               0.0000000000        0.0000000000        0.0000000000    
Pb               0.5000000000        0.5000000000        0.0000000000    
I                0.2046235041        0.2914098408       -0.0063319550    
I                0.7953764959        0.7085901592        0.0063319550    
I                0.2953764959        0.7914098408        0.0063319550    
I                0.7046235041        0.2085901592       -0.0063319550    
I               -0.0027386532        0.0150885010        0.2004738271    
I                0.0027386532       -0.0150885010       -0.2004738271    
I                0.4972613468        0.4849114990        0.2004738271    
I                0.5027386532        0.5150885010       -0.2004738271    
Cs               0.4544737238        0.0550352944        0.1744932819
Cs              -0.0455262762        0.4449647056        0.1744843224
Cs               0.5455262762       -0.0550352944       -0.1744932819
Cs               0.0455262762        0.5550352944       -0.1744843224


#------------------------------------------------------

data_12.5_2.5

_symmetry_space_group_name_H-M    'P 1'
_cell_length_a                    8.641934557
_cell_length_b                    9.095391330 
_cell_length_c                    16.0 
_cell_angle_alpha                 90
_cell_angle_beta                  90
_cell_angle_gamma                 90
_symmetry_Int_Tables_number       1

loop_
  _atom_site_type_symbol
  _atom_site_fract_x
  _atom_site_fract_y
  _atom_site_fract_z
Pb               0.0000000000        0.0000000000        0.0000000000    
Pb               0.5000000000        0.5000000000        0.0000000000    
I                0.1922946381        0.3020949153       -0.0063523669    
I                0.8077053619        0.6979050847        0.0063523669    
I                0.3077053619        0.8020949153        0.0063523669    
I                0.6922946381        0.1979050847       -0.0063523669    
I               -0.0034738159        0.0150497970        0.2006041841    
I                0.0034738159       -0.0150497970       -0.2006041841    
I                0.4965261841        0.4849502030        0.2006041841    
I                0.5034738159        0.5150497970       -0.2006041841    
Cs               0.4600513608        0.0522680072        0.1806277666
Cs              -0.0399486392        0.4477319928        0.1806188071
Cs               0.5399486392       -0.0522680072       -0.1806277666
Cs               0.0399486392        0.5522680072       -0.1806188071

#------------------------------------------------------

data_15_2.5

_symmetry_space_group_name_H-M    'P 1'
_cell_length_a                    8.506529469 
_cell_length_b                    8.991352218
_cell_length_c                    16.0 
_cell_angle_alpha                 90
_cell_angle_beta                  90
_cell_angle_gamma                 90
_symmetry_Int_Tables_number       1

loop_
  _atom_site_type_symbol
  _atom_site_fract_x
  _atom_site_fract_y
  _atom_site_fract_z
Pb               0.0000000000        0.0000000000        0.0000000000    
Pb               0.5000000000        0.5000000000        0.0000000000    
I                0.1797454910        0.3129140856       -0.0063443126    
I                0.8202545090        0.6870859144        0.0063443126    
I                0.3202545090        0.8129140856        0.0063443126    
I                0.6797454910        0.1870859144       -0.0063443126    
I               -0.0042211991        0.0150210969        0.1999677631    
I                0.0042211991       -0.0150210969       -0.1999677631    
I                0.4957788009        0.4849789031        0.1999677631    
I                0.5042211991        0.5150210969       -0.1999677631    
Cs               0.4794823632        0.0402804634        0.1885891864
Cs              -0.0205176368        0.4597195366        0.1885802269
Cs               0.5205176368       -0.0402804634       -0.1885891864
Cs               0.0205176368        0.5402804634       -0.1885802269

#------------------------------------------------------

data_17.5_2.5

_symmetry_space_group_name_H-M    'P 1'
_cell_length_a                    8.382057653
_cell_length_b                    9.015286240
_cell_length_c                    16.0 
_cell_angle_alpha                 90
_cell_angle_beta                  90
_cell_angle_gamma                 90
_symmetry_Int_Tables_number       1

loop_
  _atom_site_type_symbol
  _atom_site_fract_x
  _atom_site_fract_y
  _atom_site_fract_z
Pb               0.0000000000        0.0000000000        0.0000000000    
Pb               0.5000000000        0.5000000000        0.0000000000    
I                0.1657006095        0.3228730055       -0.0064454204    
I                0.8342993905        0.6771269945        0.0064454204    
I                0.3342993905        0.8228730055        0.0064454204    
I                0.6657006095        0.1771269945       -0.0064454204    
I               -0.0050234470        0.0148976372        0.2014848588    
I                0.0050234470       -0.0148976372       -0.2014848588    
I                0.4949765530        0.4851023628        0.2014848588    
I                0.5050234470        0.5148976372       -0.2014848588    
Cs               0.4806592710        0.0395110196        0.1929663732
Cs              -0.0193407290        0.4604889804        0.1929663732
Cs               0.5193407290       -0.0395110196       -0.1929663732
Cs               0.0193407290        0.5395110196       -0.1929663732

#------------------------------------------------------

data_20_2.5

_symmetry_space_group_name_H-M    'P 1'
_cell_length_a                    8.279985960
_cell_length_b                    8.988382973
_cell_length_c                    16.0 
_cell_angle_alpha                 90
_cell_angle_beta                  90
_cell_angle_gamma                 90
_symmetry_Int_Tables_number       1

loop_
  _atom_site_type_symbol
  _atom_site_fract_x
  _atom_site_fract_y
  _atom_site_fract_z
Pb               0.0000000000        0.0000000000        0.0000000000    
Pb               0.5000000000        0.5000000000        0.0000000000    
I                0.1516584379        0.3334513115       -0.0065220644    
I                0.8483415621        0.6665486885        0.0065220644    
I                0.3483415621        0.8334513115        0.0065220644    
I                0.6516584379        0.1665486885       -0.0065220644    
I               -0.0058352618        0.0148341701        0.2030121848    
I                0.0058352618       -0.0148341701       -0.2030121848    
I                0.4941647382        0.4851658299        0.2030121848    
I                0.5058352618        0.5148341701       -0.2030121848    
Cs               0.4819737743        0.0388178669        0.1984520252
Cs              -0.0180262257        0.4611821331        0.1984520252
Cs               0.5180262257       -0.0388178669       -0.1984520252
Cs               0.0180262257        0.5388178669       -0.1984520252
